opendss_networks/LV29_90bus/Groundings.dss
new reactor.tx_busgrounding_B3001 phases=1 bus1=B3001.4 bus2=B3001.0 r=0.3 x=0.0
new reactor.loadbusgrounding_B1276 phases=1 bus1=B1276.4 bus2=B1276.0 r=10.0 x=0.0
new reactor.loadbusgrounding_B2970 phases=1 bus1=B2970.4 bus2=B2970.0 r=10.0 x=0.0
new reactor.loadbusgrounding_B1088 phases=1 bus1=B1088.4 bus2=B1088.0 r=10.0 x=0.0
new reactor.loadbusgrounding_B104 phases=1 bus1=B104.4 bus2=B104.0 r=10.0 x=0.0
new reactor.loadbusgrounding_B2044 phases=1 bus1=B2044.4 bus2=B2044.0 r=10.0 x=0.0
new reactor.loadbusgrounding_B17 phases=1 bus1=B17.4 bus2=B17.0 r=10.0 x=0.0
new reactor.loadbusgrounding_B193 phases=1 bus1=B193.4 bus2=B193.0 r=10.0 x=0.0
new reactor.loadbusgrounding_B484 phases=1 bus1=B484.4 bus2=B484.0 r=10.0 x=0.0
new reactor.loadbusgrounding_B2428 phases=1 bus1=B2428.4 bus2=B2428.0 r=10.0 x=0.0
new reactor.loadbusgrounding_B2541 phases=1 bus1=B2541.4 bus2=B2541.0 r=10.0 x=0.0
new reactor.loadbusgrounding_B808 phases=1 bus1=B808.4 bus2=B808.0 r=10.0 x=0.0
new reactor.loadbusgrounding_B1005 phases=1 bus1=B1005.4 bus2=B1005.0 r=10.0 x=0.0
new reactor.loadbusgrounding_B2545 phases=1 bus1=B2545.4 bus2=B2545.0 r=10.0 x=0.0
new reactor.loadbusgrounding_B347 phases=1 bus1=B347.4 bus2=B347.0 r=10.0 x=0.0
new reactor.loadbusgrounding_B2194 phases=1 bus1=B2194.4 bus2=B2194.0 r=10.0 x=0.0
new reactor.loadbusgrounding_B948 phases=1 bus1=B948.4 bus2=B948.0 r=10.0 x=0.0
new reactor.loadbusgrounding_B1729 phases=1 bus1=B1729.4 bus2=B1729.0 r=10.0 x=0.0
new reactor.loadbusgrounding_B546 phases=1 bus1=B546.4 bus2=B546.0 r=10.0 x=0.0
new reactor.loadbusgrounding_B2957 phases=1 bus1=B2957.4 bus2=B2957.0 r=10.0 x=0.0
new reactor.loadbusgrounding_B116 phases=1 bus1=B116.4 bus2=B116.0 r=10.0 x=0.0
new reactor.loadbusgrounding_B2712 phases=1 bus1=B2712.4 bus2=B2712.0 r=10.0 x=0.0
new reactor.loadbusgrounding_B2193 phases=1 bus1=B2193.4 bus2=B2193.0 r=10.0 x=0.0
new reactor.loadbusgrounding_B414 phases=1 bus1=B414.4 bus2=B414.0 r=10.0 x=0.0
new reactor.loadbusgrounding_B1307 phases=1 bus1=B1307.4 bus2=B1307.0 r=10.0 x=0.0
new reactor.loadbusgrounding_B318 phases=1 bus1=B318.4 bus2=B318.0 r=10.0 x=0.0
new reactor.loadbusgrounding_B1404 phases=1 bus1=B1404.4 bus2=B1404.0 r=10.0 x=0.0
new reactor.loadbusgrounding_B2638 phases=1 bus1=B2638.4 bus2=B2638.0 r=10.0 x=0.0
new reactor.loadbusgrounding_B2483 phases=1 bus1=B2483.4 bus2=B2483.0 r=10.0 x=0.0
new reactor.loadbusgrounding_B2981 phases=1 bus1=B2981.4 bus2=B2981.0 r=10.0 x=0.0
new reactor.loadbusgrounding_B398 phases=1 bus1=B398.4 bus2=B398.0 r=10.0 x=0.0
new reactor.loadbusgrounding_B1268 phases=1 bus1=B1268.4 bus2=B1268.0 r=10.0 x=0.0
new reactor.loadbusgrounding_B2376 phases=1 bus1=B2376.4 bus2=B2376.0 r=10.0 x=0.0
new reactor.loadbusgrounding_B1742 phases=1 bus1=B1742.4 bus2=B1742.0 r=10.0 x=0.0
new reactor.loadbusgrounding_B1270 phases=1 bus1=B1270.4 bus2=B1270.0 r=10.0 x=0.0
new reactor.loadbusgrounding_B1944 phases=1 bus1=B1944.4 bus2=B1944.0 r=10.0 x=0.0
new reactor.loadbusgrounding_B862 phases=1 bus1=B862.4 bus2=B862.0 r=10.0 x=0.0
new reactor.loadbusgrounding_B1856 phases=1 bus1=B1856.4 bus2=B1856.0 r=10.0 x=0.0
new reactor.loadbusgrounding_B3082 phases=1 bus1=B3082.4 bus2=B3082.0 r=10.0 x=0.0
new reactor.loadbusgrounding_B2696 phases=1 bus1=B2696.4 bus2=B2696.0 r=10.0 x=0.0
new reactor.loadbusgrounding_B2591 phases=1 bus1=B2591.4 bus2=B2591.0 r=10.0 x=0.0
new reactor.loadbusgrounding_B289 phases=1 bus1=B289.4 bus2=B289.0 r=10.0 x=0.0
